*Heading
Mesh generated from STL
*Node
1, 0.023586701601743698, 0.013439266011118889, -0.0060330955311656
2, 0.02338417060673237, 0.013198205269873142, -0.004351642914116383
3, 0.02538112737238407, 0.013045516796410084, -0.006206960882991552
4, 0.14024588465690613, 0.012659337371587753, -0.014993572607636452
5, 0.14054884016513824, 0.01252195704728365, -0.015956731513142586
6, 0.1401509791612625, 0.01205095648765564, -0.017101110890507698
7, 0.09251715987920761, 0.013132872991263866, -0.01003970392048359
8, 0.09245248138904572, 0.0126561364158988, -0.007982254959642887
9, 0.09404880553483963, 0.012983628548681736, -0.008007049560546875
10, 0.14717678725719452, 0.010809849016368389, -0.026104984804987907
11, 0.14709962904453278, 0.011870281770825386, -0.027006199583411217
12, 0.1488238424062729, 0.011347537860274315, -0.027347123250365257
13, 0.07725231349468231, 0.005604912992566824, -0.02651100419461727
14, 0.07572571933269501, 0.004770432598888874, -0.02658686414361
15, 0.07598527520895004, 0.006037274841219187, -0.026761729270219803
16, 0.04972577095031738, 0.00230388343334198, -0.013531631790101528
17, 0.0500946082174778, 0.003915219567716122, -0.012788284569978714
18, 0.04801261052489281, 0.0036029622424393892, -0.01255505345761776
19, 0.0034349225461483, 0.009653235785663128, -0.008402851410210133
20, 0.0018774395575746894, 0.00771811418235302, -0.008161460980772972
** ... 6699 like lines cut
*Element, type=C3D4, ELSET=allelements
1, 6624, 3380, 1859, 1607
2, 1302, 2383, 5474, 5613
3, 364, 363, 362, 5907
4, 578, 5159, 579, 5250
5, 6491, 4131, 6460, 4127
6, 1048, 1008, 5417, 5524
7, 5451, 6114, 4629, 6170
8, 2313, 1774, 2314, 5608
9, 2793, 6089, 4366, 6134
10, 6677, 6616, 4157, 6694
11, 880, 5140, 688, 431
12, 2674, 4485, 4855, 6374
13, 5142, 3334, 3415, 3414
14, 1682, 5310, 5970, 1683
15, 6687, 6706, 6661, 6653
16, 5157, 5104, 5205, 6410
17, 5280, 5463, 5583, 5827
18, 5533, 1743, 5953, 6036
19, 4681, 6512, 1178, 392
20, 5641, 5478, 5789, 5940
** ... 24949 like lines cut
*SOLID SECTION, MATERIAL=BONE, ELSET=allelements
*MATERIAL, NAME=BONE
*ELASTIC, TYPE=ISO
5000000, 0.3, 10
*DENSITY
1.0

